27
# CELL{H}: 18.9917475 -9.49587375 0 0 16.4473358 0 0 0 37.79452268
      Nb     0.065519891     3.734302557    18.897261194
       S     3.165290347     1.805182507    15.935936874
       S     3.165290347     1.805182507    21.858585514
      Nb    -3.064230658     9.153966477    18.897261194
       S     0.007952831     7.314623293    15.909566985
       S     0.007952831     7.314623293    21.884955403
      Nb    -6.330582462    14.620089676    18.897261194
       S    -3.184736647    12.803321387    15.936002729
       S    -3.184736647    12.803321387    21.858519659
      Nb     6.265060187     3.734300375    18.897261194
       S     9.469834381     1.812387037    15.993643025
       S     9.469834381     1.812387037    21.800879364
      Nb     3.165288997     9.136696773    18.897261195
       S     6.322629960     7.314623542    15.909568806
       S     6.322629961     7.314623542    21.884953582
      Nb     0.035285042    14.523772603    18.897261195
       S     3.165291774    12.783172819    15.910138343
       S     3.165291775    12.783172819    21.884384046
      Nb    12.661167933     3.655708536    18.897261194
       S    15.852496489     1.812385955    15.993640747
       S    15.852496489     1.812385955    21.800881640
      Nb     9.394814683     9.153968321    18.897261194
       S    12.661164735     7.340374063    15.993107708
       S    12.661164735     7.340374063    21.801414680
      Nb     6.295297515    14.523775324    18.897261194
       S     9.515318693    12.803321757    15.936002373
       S     9.515318693    12.803321757    21.858520014
