27
# CELL{H}: 18.9917475 -9.49587375 0 0 16.4473358 0 0 0 37.79452268
      Nb     0.097981039     3.711613329    18.897261193
       S     3.175464789     1.801848439    15.946749810
       S     3.175464789     1.801848438    21.847772577
      Nb    -3.165293014     9.206904209    18.897261194
       S    -0.017083892     7.331577096    15.946685446
       S    -0.017083892     7.331577095    21.847836941
      Nb    -6.270383643    14.584987575    18.897261193
       S    -3.165291177    12.792388701    15.887144899
       S    -3.165291177    12.792388700    21.907377488
      Nb     6.330582346     3.704644581    18.897261195
       S     9.485700292     1.801848830    15.946749895
       S     9.485700293     1.801848830    21.847772494
      Nb     3.208219096     9.112640575    18.897261195
       S     6.330582870     7.309945648    15.918496418
       S     6.330582870     7.309945648    21.876025971
      Nb    -0.060199825    14.584987918    18.897261195
       S     3.138030273    12.796378931    15.946658008
       S     3.138030273    12.796378931    21.847864381
      Nb    12.563184121     3.711614301    18.897261194
       S    15.826455995     1.827437171    16.029735090
       S    15.826455996     1.827437171    21.764787298
      Nb     9.452947112     9.112641895    18.897261195
       S    12.678248446     7.331576493    15.946684233
       S    12.678248447     7.331576493    21.847838155
      Nb     6.330584019    14.506571853    18.897261194
       S     9.523134903    12.796378257    15.946656791
       S     9.523134904    12.796378257    21.847865596
