27
# CELL{H}: 18.9917475 -9.49587375 0 0 16.4473358 0 0 0 37.79452268
      Nb    -0.000000485     3.767185842    18.897261195
       S     3.158338530     1.823451163    15.995671364
       S     3.158338531     1.823451163    21.798851024
      Nb    -3.102547871     9.173637821    18.897261194
       S    -0.000000023     7.320338632    15.897369092
       S    -0.000000022     7.320338633    21.897153296
      Nb    -6.233429479    14.563682747    18.897261194
       S    -3.156307916    12.787209374    15.897347165
       S    -3.156307915    12.787209374    21.897175222
      Nb     6.403060417     3.696846768    18.897261194
       S     9.495873792     1.786142436    15.947071622
       S     9.495873791     1.786142435    21.847450766
      Nb     3.102547047     9.173637781    18.897261194
       S     6.294789612     7.330597737    15.947044720
       S     6.294789612     7.330597736    21.847477668
      Nb    -0.000000202    14.547325843    18.897261194
       S     3.156308134    12.787209567    15.897347349
       S     3.156308135    12.787209568    21.897175039
      Nb    12.588687421     3.696847246    18.897261195
       S    15.833408640     1.823451058    15.995671001
       S    15.833408640     1.823451058    21.798851387
      Nb     9.495874448     9.053738249    18.897261194
       S    12.696958089     7.330597324    15.947044130
       S    12.696958090     7.330597325    21.847478257
      Nb     6.233429773    14.563683214    18.897261194
       S     9.495873733    12.800392636    15.995611994
       S     9.495873733    12.800392636    21.798910394
