27
# CELL{H}: 18.9917475 -9.49587375 0 0 16.4473358 0 0 0 37.79452268
      Nb     0.048909824     3.683264411    18.897261194
       S     3.145069085     1.800985804    15.946002605
       S     3.145069085     1.800985804    21.848519784
      Nb    -3.165291276     9.272108602    18.897261195
       S    -0.033051012     7.305687638    15.945980735
       S    -0.033051011     7.305687638    21.848541653
      Nb    -6.213979320    14.552477320    18.897261195
       S    -3.165291157    12.792391764    15.838737864
       S    -3.165291155    12.792391764    21.955784524
      Nb     6.330582751     3.575426587    18.897261194
       S     9.516096101     1.800985793    15.946002259
       S     9.516096101     1.800985792    21.848520128
      Nb     3.096437724     9.177194494    18.897261193
       S     6.330582496     7.309908892    16.014357844
       S     6.330582495     7.309908891    21.780164544
      Nb    -0.116603424    14.552477639    18.897261193
       S     3.152427172    12.823115403    15.945970166
       S     3.152427171    12.823115402    21.848552220
      Nb    12.612254676     3.683264325    18.897261194
       S    15.826456189     1.827439224    15.985957301
       S    15.826456189     1.827439223    21.808565086
      Nb     9.564727433     9.177193896    18.897261195
       S    12.694216193     7.305687681    15.945980605
       S    12.694216193     7.305687679    21.848541784
      Nb     6.330582206    14.563322852    18.897261194
       S     9.508737764    12.823115424    15.945970352
       S     9.508737763    12.823115424    21.848552037
